packages/bdgd2opendss/bdgd2opendss-1.0.0.tar.gz/bdgd2opendss-1.0.0/tests/dss_models_output/sub__SE001/17_SE001_1/GD_BT_202312598_17_SE001_1_------1-----.dss
New "LoadShape.default_pv_daily_bt" npts=24 interval=1 
~ mult = [0 0 0 0 0 0 0.1 0.2 0.3 0.5 0.8 0.9 1.0 1.0 0.99 0.9 0.7 0.4 0.1 0 0 0 0 0] 

New "generator.GD.RS.001.001.227" phases=3 bus1=UC1726306.1.2.3.4 basefreq=60 conn=Delta kv=0.38 pf=0.92 kw=9.45 daily=default_pv_daily_bt 

New "generator.GD.RS.000.400.553" phases=3 bus1=UC1720070.1.2.3.4 basefreq=60 conn=Delta kv=0.38 pf=0.92 kw=30.0 daily=default_pv_daily_bt 

New "generator.GD.RS.000.035.413" phases=3 bus1=UC1720071.1.2.3.4 basefreq=60 conn=Delta kv=0.38 pf=0.92 kw=27.5 daily=default_pv_daily_bt 

New "generator.GD.RS.000.048.128" phases=3 bus1=UC1725820.1.2.3.4 basefreq=60 conn=Delta kv=0.38 pf=0.92 kw=32.5 daily=default_pv_daily_bt 

New "generator.GD.RS.000.966.421" phases=3 bus1=UC1720069.1.2.3.4 basefreq=60 conn=Delta kv=0.38 pf=0.92 kw=12.0 daily=default_pv_daily_bt 

New "generator.GD.RS.001.922.527" phases=1 bus1=UC1722094.1.4 basefreq=60 conn=Wye kv=0.2193931022920578 pf=0.92 kw=7.5 daily=default_pv_daily_bt 

New "generator.GD.RS.000.970.876" phases=3 bus1=UC1718150.1.2.3.4 basefreq=60 conn=Delta kv=0.38 pf=0.92 kw=10.0 daily=default_pv_daily_bt 

New "generator.GD.RS.000.181.371" phases=3 bus1=UC1725701.1.2.3.4 basefreq=60 conn=Delta kv=0.38 pf=0.92 kw=5.0 daily=default_pv_daily_bt 

New "generator.GD.RS.000.048.139" phases=3 bus1=UC1721216.1.2.3.4 basefreq=60 conn=Delta kv=0.38 pf=0.92 kw=15.0 daily=default_pv_daily_bt 

New "generator.GD.RS.001.675.320" phases=1 bus1=UC1705072.3.1.4 basefreq=60 conn=Delta kv=0.38 pf=0.92 kw=3.39 daily=default_pv_daily_bt 

New "generator.GD.RS.001.591.133" phases=1 bus1=UC1722732.1.4 basefreq=60 conn=Wye kv=0.22 pf=0.92 kw=7.5 daily=default_pv_daily_bt 

New "generator.GD.RS.000.048.133" phases=1 bus1=UC1721094.2.4 basefreq=60 conn=Wye kv=0.2193931022920578 pf=0.92 kw=6.0 daily=default_pv_daily_bt 

New "generator.GD.RS.001.196.903" phases=3 bus1=UC1719252.1.2.3.4 basefreq=60 conn=Delta kv=0.38 pf=0.92 kw=9.45 daily=default_pv_daily_bt 

New "generator.GD.RS.001.523.081" phases=1 bus1=UC1723978.1.4 basefreq=60 conn=Wye kv=0.2193931022920578 pf=0.92 kw=5.0 daily=default_pv_daily_bt 

New "generator.GD.RS.000.653.049" phases=1 bus1=UC1713674.3.4 basefreq=60 conn=Wye kv=0.2193931022920578 pf=0.92 kw=2.0 daily=default_pv_daily_bt 

New "generator.GD.RS.001.591.023" phases=3 bus1=UC1704752.1.2.3.4 basefreq=60 conn=Delta kv=0.38 pf=0.92 kw=5.0 daily=default_pv_daily_bt 

New "generator.GD.RS.001.522.946" phases=3 bus1=UC1701683.1.2.3.4 basefreq=60 conn=Delta kv=0.38 pf=0.92 kw=75.0 daily=default_pv_daily_bt 

New "generator.GD.RS.000.116.072" phases=3 bus1=UC1704588.1.2.3.4 basefreq=60 conn=Delta kv=0.38 pf=0.92 kw=65.0 daily=default_pv_daily_bt 

New "generator.GD.RS.000.505.416" phases=3 bus1=UC1704739.1.2.3.4 basefreq=60 conn=Delta kv=0.38 pf=0.92 kw=10.0 daily=default_pv_daily_bt 

New "generator.GD.RS.001.001.178" phases=1 bus1=UC1704570.2.4 basefreq=60 conn=Wye kv=0.2193931022920578 pf=0.92 kw=6.0 daily=default_pv_daily_bt 

New "generator.GD.RS.001.066.654" phases=1 bus1=UC1704573.3.4 basefreq=60 conn=Wye kv=0.2193931022920578 pf=0.92 kw=2.4 daily=default_pv_daily_bt 

New "generator.GD.RS.000.447.280" phases=1 bus1=UC1704620.1.4 basefreq=60 conn=Wye kv=0.2193931022920578 pf=0.92 kw=7.5 daily=default_pv_daily_bt 

New "generator.GD.RS.001.817.537" phases=1 bus1=UC1720570.3.4 basefreq=60 conn=Wye kv=0.2193931022920578 pf=0.92 kw=5.0 daily=default_pv_daily_bt 

New "generator.GD.RS.000.550.046" phases=1 bus1=UC1704549.3.4 basefreq=60 conn=Wye kv=0.2193931022920578 pf=0.92 kw=3.0 daily=default_pv_daily_bt 

New "generator.GD.RS.000.971.153" phases=1 bus1=UC1704554.2.4 basefreq=60 conn=Wye kv=0.2193931022920578 pf=0.92 kw=5.0 daily=default_pv_daily_bt 

New "generator.GD.RS.002.034.244" phases=1 bus1=UC1704605.3.4 basefreq=60 conn=Wye kv=0.2193931022920578 pf=0.92 kw=5.55 daily=default_pv_daily_bt 

New "generator.GD.RS.001.591.015" phases=3 bus1=UC1704607.1.2.3.4 basefreq=60 conn=Delta kv=0.38 pf=0.92 kw=4.44 daily=default_pv_daily_bt 

New "generator.GD.RS.000.371.890" phases=1 bus1=UC1701629.1.2.4 basefreq=60 conn=Delta kv=0.38 pf=0.92 kw=6.0 daily=default_pv_daily_bt 

New "generator.GD.RS.001.751.923" phases=1 bus1=UC1727023.1.4 basefreq=60 conn=Wye kv=0.2193931022920578 pf=0.92 kw=3.0 daily=default_pv_daily_bt 

New "generator.GD.RS.001.429.794" phases=3 bus1=UC1738844.1.2.3.4 basefreq=60 conn=Delta kv=0.38 pf=0.92 kw=9.0 daily=default_pv_daily_bt 

New "generator.GD.RS.001.554.628" phases=3 bus1=UC1738257.1.2.3.4 basefreq=60 conn=Delta kv=0.38 pf=0.92 kw=8.04 daily=default_pv_daily_bt 

New "generator.GD.RS.000.819.206" phases=3 bus1=UC1738049.1.2.3.4 basefreq=60 conn=Delta kv=0.38 pf=0.92 kw=12.0 daily=default_pv_daily_bt 

New "generator.GD.RS.001.001.211" phases=3 bus1=UC1704801.1.2.3.4 basefreq=60 conn=Delta kv=0.38 pf=0.92 kw=37.4 daily=default_pv_daily_bt 

New "generator.GD.RS.001.197.083" phases=1 bus1=UC1737551.3.4 basefreq=60 conn=Wye kv=0.2193931022920578 pf=0.92 kw=8.0 daily=default_pv_daily_bt 

New "generator.GD.RS.001.001.765" phases=3 bus1=UC1736453.1.2.3.4 basefreq=60 conn=Delta kv=0.38 pf=0.92 kw=60.0 daily=default_pv_daily_bt 

New "generator.GD.RS.001.001.799" phases=3 bus1=UC1736500.1.2.3.4 basefreq=60 conn=Delta kv=0.38 pf=0.92 kw=6.23 daily=default_pv_daily_bt 

New "generator.GD.RS.000.653.056" phases=3 bus1=UC1736359.1.2.3.4 basefreq=60 conn=Delta kv=0.38 pf=0.92 kw=31.83 daily=default_pv_daily_bt 

New "generator.GD.RS.001.255.430" phases=3 bus1=UC1736266.1.2.3.4 basefreq=60 conn=Delta kv=0.38 pf=0.92 kw=15.0 daily=default_pv_daily_bt 

New "generator.GD.RS.001.001.720" phases=3 bus1=UC1735983.1.2.3.4 basefreq=60 conn=Delta kv=0.38 pf=0.92 kw=15.0 daily=default_pv_daily_bt 

New "generator.GD.RS.000.970.921" phases=1 bus1=UC1704522.1.4 basefreq=60 conn=Wye kv=0.2193931022920578 pf=0.92 kw=4.5 daily=default_pv_daily_bt 

New "generator.GD.RS.000.686.252" phases=3 bus1=UC1735227.1.2.3.4 basefreq=60 conn=Delta kv=0.38 pf=0.92 kw=20.0 daily=default_pv_daily_bt 

New "generator.GD.RS.001.675.329" phases=3 bus1=UC1734906.1.2.3.4 basefreq=60 conn=Delta kv=0.38 pf=0.92 kw=11.0 daily=default_pv_daily_bt 

New "generator.GD.RS.001.196.909" phases=3 bus1=UC1734770.1.2.3.4 basefreq=60 conn=Delta kv=0.38 pf=0.92 kw=10.77 daily=default_pv_daily_bt 

New "generator.GD.RS.001.591.712" phases=3 bus1=UC1734217.1.2.3.4 basefreq=60 conn=Delta kv=0.38 pf=0.92 kw=18.0 daily=default_pv_daily_bt 

New "generator.GD.RS.000.969.156" phases=3 bus1=UC1734377.1.2.3.4 basefreq=60 conn=Delta kv=0.38 pf=0.92 kw=10.8 daily=default_pv_daily_bt 

New "generator.GD.RS.001.993.232" phases=3 bus1=UC1731657.1.2.3.4 basefreq=60 conn=Delta kv=0.38 pf=0.92 kw=17.8 daily=default_pv_daily_bt 

New "generator.GD.RS.002.074.968" phases=1 bus1=UC1729833.1.2.4 basefreq=60 conn=Delta kv=0.38 pf=0.92 kw=10.0 daily=default_pv_daily_bt 

New "generator.GD.RS.000.859.150" phases=3 bus1=UC1728596.1.2.3.4 basefreq=60 conn=Delta kv=0.38 pf=0.92 kw=5.74 daily=default_pv_daily_bt 

New "generator.GD.RS.001.591.704" phases=3 bus1=UC1728307.1.2.3.4 basefreq=60 conn=Delta kv=0.38 pf=0.92 kw=5.0 daily=default_pv_daily_bt 

